*SPEF "ieee 1481-1999"
*DESIGN "fpga_top"
*DATE "16:06:21 Monday December 01, 2025"
*VENDOR "The OpenROAD Project"
*PROGRAM "OpenROAD"
*VERSION "edf00dff99f6c40d67a30c0e22a8191c5d2ed9d6"
*DESIGN_FLOW "NAME_SCOPE LOCAL" "PIN_CAP NONE"
*DIVIDER /
*DELIMITER :
*BUS_DELIMITER []
*T_UNIT 1 NS
*C_UNIT 1 PF
*R_UNIT 1 OHM
*L_UNIT 1 HENRY

*NAME_MAP
*1 IO_ISOL_N
*2 Test_en
*3 ccff_head
*4 ccff_tail
*5 clk
*6 net42
*7 net32
*8 net31
*9 net30
*10 net29
*11 net28
*12 net27
*13 net26
*14 net25
*15 net24
*16 net23
*17 net41
*18 net22
*19 net21
*20 net20
*21 net19
*22 net40
*23 net39
*24 net38
*25 net37
*26 net36
*27 net35
*28 net34
*29 net33
*30 gfpga_pad_EMBEDDED_IO_HD_SOC_IN[0]
*31 gfpga_pad_EMBEDDED_IO_HD_SOC_IN[10]
*32 gfpga_pad_EMBEDDED_IO_HD_SOC_IN[11]
*33 gfpga_pad_EMBEDDED_IO_HD_SOC_IN[12]
*34 gfpga_pad_EMBEDDED_IO_HD_SOC_IN[13]
*35 gfpga_pad_EMBEDDED_IO_HD_SOC_IN[14]
*36 gfpga_pad_EMBEDDED_IO_HD_SOC_IN[15]
*37 gfpga_pad_EMBEDDED_IO_HD_SOC_IN[16]
*38 gfpga_pad_EMBEDDED_IO_HD_SOC_IN[17]
*39 gfpga_pad_EMBEDDED_IO_HD_SOC_IN[18]
*40 gfpga_pad_EMBEDDED_IO_HD_SOC_IN[19]
*41 gfpga_pad_EMBEDDED_IO_HD_SOC_IN[1]
*42 gfpga_pad_EMBEDDED_IO_HD_SOC_IN[20]
*43 gfpga_pad_EMBEDDED_IO_HD_SOC_IN[21]
*44 gfpga_pad_EMBEDDED_IO_HD_SOC_IN[22]
*45 gfpga_pad_EMBEDDED_IO_HD_SOC_IN[23]
*46 gfpga_pad_EMBEDDED_IO_HD_SOC_IN[2]
*47 gfpga_pad_EMBEDDED_IO_HD_SOC_IN[3]
*48 gfpga_pad_EMBEDDED_IO_HD_SOC_IN[4]
*49 gfpga_pad_EMBEDDED_IO_HD_SOC_IN[5]
*50 gfpga_pad_EMBEDDED_IO_HD_SOC_IN[6]
*51 gfpga_pad_EMBEDDED_IO_HD_SOC_IN[7]
*52 gfpga_pad_EMBEDDED_IO_HD_SOC_IN[8]
*53 gfpga_pad_EMBEDDED_IO_HD_SOC_IN[9]
*54 net18
*55 net8
*56 net7
*57 net6
*58 net5
*59 net4
*60 net3
*61 net50
*62 net49
*63 net48
*64 net47
*65 net17
*66 net46
*67 net45
*68 net44
*69 net43
*70 net16
*71 net15
*72 net14
*73 net13
*74 net12
*75 net11
*76 net10
*77 net9
*78 prog_clk
*81 cbx_1__0_\.ccff_head
*82 cbx_1__0_\.ccff_tail
*83 cbx_1__0_\.mem_top_ipin_0\.ccff_tail
*84 cbx_1__0_\.mem_top_ipin_0\.mem_out\[0\]
*85 cbx_1__0_\.mem_top_ipin_0\.mem_out\[1\]
*86 cbx_1__0_\.mem_top_ipin_0\.mem_out\[2\]
*87 cbx_1__0_\.mem_top_ipin_1\.ccff_tail
*88 cbx_1__0_\.mem_top_ipin_1\.mem_out\[0\]
*89 cbx_1__0_\.mem_top_ipin_1\.mem_out\[1\]
*90 cbx_1__0_\.mem_top_ipin_1\.mem_out\[2\]
*91 cbx_1__0_\.mem_top_ipin_2\.ccff_tail
*92 cbx_1__0_\.mem_top_ipin_2\.mem_out\[0\]
*93 cbx_1__0_\.mem_top_ipin_2\.mem_out\[1\]
*94 cbx_1__0_\.mem_top_ipin_2\.mem_out\[2\]
*95 cbx_1__0_\.mem_top_ipin_3\.ccff_tail
*96 cbx_1__0_\.mem_top_ipin_3\.mem_out\[0\]
*97 cbx_1__0_\.mem_top_ipin_3\.mem_out\[1\]
*98 cbx_1__0_\.mem_top_ipin_3\.mem_out\[2\]
*99 cbx_1__0_\.mem_top_ipin_4\.ccff_tail
*100 cbx_1__0_\.mem_top_ipin_4\.mem_out\[0\]
*101 cbx_1__0_\.mem_top_ipin_4\.mem_out\[1\]
*102 cbx_1__0_\.mem_top_ipin_4\.mem_out\[2\]
*103 cbx_1__0_\.mem_top_ipin_5\.ccff_tail
*104 cbx_1__0_\.mem_top_ipin_5\.mem_out\[0\]
*105 cbx_1__0_\.mem_top_ipin_5\.mem_out\[1\]
*106 cbx_1__0_\.mem_top_ipin_5\.mem_out\[2\]
*107 cbx_1__0_\.mem_top_ipin_6\.ccff_tail
*108 cbx_1__0_\.mem_top_ipin_6\.mem_out\[0\]
*109 cbx_1__0_\.mem_top_ipin_6\.mem_out\[1\]
*110 cbx_1__0_\.mem_top_ipin_6\.mem_out\[2\]
*111 cbx_1__0_\.mem_top_ipin_7\.ccff_tail
*112 cbx_1__0_\.mem_top_ipin_7\.mem_out\[0\]
*113 cbx_1__0_\.mem_top_ipin_7\.mem_out\[1\]
*114 cbx_1__0_\.mem_top_ipin_7\.mem_out\[2\]
*115 cbx_1__0_\.mem_top_ipin_8\.mem_out\[0\]
*116 cbx_1__0_\.mem_top_ipin_8\.mem_out\[1\]
*117 cbx_1__0_\.mem_top_ipin_8\.mem_out\[2\]
*118 cbx_1__0__1_ccff_tail
*119 cbx_1__1_\.ccff_head
*120 cbx_1__1_\.ccff_tail
*121 cbx_1__1_\.mem_top_ipin_0\.ccff_tail
*122 cbx_1__1_\.mem_top_ipin_0\.mem_out\[0\]
*123 cbx_1__1_\.mem_top_ipin_0\.mem_out\[1\]
*124 cbx_1__1_\.mem_top_ipin_0\.mem_out\[2\]
*125 cbx_1__1_\.mem_top_ipin_1\.ccff_tail
*126 cbx_1__1_\.mem_top_ipin_1\.mem_out\[0\]
*127 cbx_1__1_\.mem_top_ipin_1\.mem_out\[1\]
*128 cbx_1__1_\.mem_top_ipin_1\.mem_out\[2\]
*129 cbx_1__1_\.mem_top_ipin_10\.ccff_head
*130 cbx_1__1_\.mem_top_ipin_10\.ccff_tail
*131 cbx_1__1_\.mem_top_ipin_10\.mem_out\[0\]
*132 cbx_1__1_\.mem_top_ipin_10\.mem_out\[1\]
*133 cbx_1__1_\.mem_top_ipin_10\.mem_out\[2\]
*134 cbx_1__1_\.mem_top_ipin_11\.ccff_tail
*135 cbx_1__1_\.mem_top_ipin_11\.mem_out\[0\]
*136 cbx_1__1_\.mem_top_ipin_11\.mem_out\[1\]
*137 cbx_1__1_\.mem_top_ipin_11\.mem_out\[2\]
*138 cbx_1__1_\.mem_top_ipin_12\.ccff_tail
*139 cbx_1__1_\.mem_top_ipin_12\.mem_out\[0\]
*140 cbx_1__1_\.mem_top_ipin_12\.mem_out\[1\]
*141 cbx_1__1_\.mem_top_ipin_12\.mem_out\[2\]
*142 cbx_1__1_\.mem_top_ipin_13\.ccff_tail
*143 cbx_1__1_\.mem_top_ipin_13\.mem_out\[0\]
*144 cbx_1__1_\.mem_top_ipin_13\.mem_out\[1\]
*145 cbx_1__1_\.mem_top_ipin_13\.mem_out\[2\]
*146 cbx_1__1_\.mem_top_ipin_14\.ccff_tail
*147 cbx_1__1_\.mem_top_ipin_14\.mem_out\[0\]
*148 cbx_1__1_\.mem_top_ipin_14\.mem_out\[1\]
*149 cbx_1__1_\.mem_top_ipin_14\.mem_out\[2\]
*150 cbx_1__1_\.mem_top_ipin_15\.mem_out\[0\]
*151 cbx_1__1_\.mem_top_ipin_15\.mem_out\[1\]
*152 cbx_1__1_\.mem_top_ipin_15\.mem_out\[2\]
*153 cbx_1__1_\.mem_top_ipin_2\.ccff_tail
*154 cbx_1__1_\.mem_top_ipin_2\.mem_out\[0\]
*155 cbx_1__1_\.mem_top_ipin_2\.mem_out\[1\]
*156 cbx_1__1_\.mem_top_ipin_2\.mem_out\[2\]
*157 cbx_1__1_\.mem_top_ipin_3\.ccff_tail
*158 cbx_1__1_\.mem_top_ipin_3\.mem_out\[0\]
*159 cbx_1__1_\.mem_top_ipin_3\.mem_out\[1\]
*160 cbx_1__1_\.mem_top_ipin_3\.mem_out\[2\]
*161 cbx_1__1_\.mem_top_ipin_4\.ccff_tail
*162 cbx_1__1_\.mem_top_ipin_4\.mem_out\[0\]
*163 cbx_1__1_\.mem_top_ipin_4\.mem_out\[1\]
*164 cbx_1__1_\.mem_top_ipin_4\.mem_out\[2\]
*165 cbx_1__1_\.mem_top_ipin_5\.ccff_tail
*166 cbx_1__1_\.mem_top_ipin_5\.mem_out\[0\]
*167 cbx_1__1_\.mem_top_ipin_5\.mem_out\[1\]
*168 cbx_1__1_\.mem_top_ipin_5\.mem_out\[2\]
*169 cbx_1__1_\.mem_top_ipin_6\.ccff_tail
*170 cbx_1__1_\.mem_top_ipin_6\.mem_out\[0\]
*171 cbx_1__1_\.mem_top_ipin_6\.mem_out\[1\]
*172 cbx_1__1_\.mem_top_ipin_6\.mem_out\[2\]
*173 cbx_1__1_\.mem_top_ipin_7\.ccff_tail
*174 cbx_1__1_\.mem_top_ipin_7\.mem_out\[0\]
*175 cbx_1__1_\.mem_top_ipin_7\.mem_out\[1\]
*176 cbx_1__1_\.mem_top_ipin_7\.mem_out\[2\]
*177 cbx_1__1_\.mem_top_ipin_8\.ccff_tail
*178 cbx_1__1_\.mem_top_ipin_8\.mem_out\[0\]
*179 cbx_1__1_\.mem_top_ipin_8\.mem_out\[1\]
*180 cbx_1__1_\.mem_top_ipin_8\.mem_out\[2\]
*181 cbx_1__1_\.mem_top_ipin_9\.mem_out\[0\]
*182 cbx_1__1_\.mem_top_ipin_9\.mem_out\[1\]
*183 cbx_1__1_\.mem_top_ipin_9\.mem_out\[2\]
*184 cbx_1__1__1_ccff_tail
*185 cbx_1__2_\.ccff_head
*186 cbx_1__2_\.ccff_tail
*187 cbx_1__2_\.mem_bottom_ipin_0\.ccff_tail
*188 cbx_1__2_\.mem_bottom_ipin_0\.mem_out\[0\]
*189 cbx_1__2_\.mem_bottom_ipin_0\.mem_out\[1\]
*190 cbx_1__2_\.mem_bottom_ipin_0\.mem_out\[2\]
*191 cbx_1__2_\.mem_top_ipin_0\.ccff_tail
*192 cbx_1__2_\.mem_top_ipin_0\.mem_out\[0\]
*193 cbx_1__2_\.mem_top_ipin_0\.mem_out\[1\]
*194 cbx_1__2_\.mem_top_ipin_0\.mem_out\[2\]
*195 cbx_1__2_\.mem_top_ipin_1\.ccff_tail
*196 cbx_1__2_\.mem_top_ipin_1\.mem_out\[0\]
*197 cbx_1__2_\.mem_top_ipin_1\.mem_out\[1\]
*198 cbx_1__2_\.mem_top_ipin_1\.mem_out\[2\]
*199 cbx_1__2_\.mem_top_ipin_10\.ccff_head
*200 cbx_1__2_\.mem_top_ipin_10\.ccff_tail
*201 cbx_1__2_\.mem_top_ipin_10\.mem_out\[0\]
*202 cbx_1__2_\.mem_top_ipin_10\.mem_out\[1\]
*203 cbx_1__2_\.mem_top_ipin_10\.mem_out\[2\]
*204 cbx_1__2_\.mem_top_ipin_11\.ccff_tail
*205 cbx_1__2_\.mem_top_ipin_11\.mem_out\[0\]
*206 cbx_1__2_\.mem_top_ipin_11\.mem_out\[1\]
*207 cbx_1__2_\.mem_top_ipin_11\.mem_out\[2\]
*208 cbx_1__2_\.mem_top_ipin_12\.ccff_tail
*209 cbx_1__2_\.mem_top_ipin_12\.mem_out\[0\]
*210 cbx_1__2_\.mem_top_ipin_12\.mem_out\[1\]
*211 cbx_1__2_\.mem_top_ipin_12\.mem_out\[2\]
*212 cbx_1__2_\.mem_top_ipin_13\.ccff_tail
*213 cbx_1__2_\.mem_top_ipin_13\.mem_out\[0\]
*214 cbx_1__2_\.mem_top_ipin_13\.mem_out\[1\]
*215 cbx_1__2_\.mem_top_ipin_13\.mem_out\[2\]
*216 cbx_1__2_\.mem_top_ipin_14\.ccff_tail
*217 cbx_1__2_\.mem_top_ipin_14\.mem_out\[0\]
*218 cbx_1__2_\.mem_top_ipin_14\.mem_out\[1\]
*219 cbx_1__2_\.mem_top_ipin_14\.mem_out\[2\]
*220 cbx_1__2_\.mem_top_ipin_15\.mem_out\[0\]
*221 cbx_1__2_\.mem_top_ipin_15\.mem_out\[1\]
*222 cbx_1__2_\.mem_top_ipin_15\.mem_out\[2\]
*223 cbx_1__2_\.mem_top_ipin_2\.ccff_tail
*224 cbx_1__2_\.mem_top_ipin_2\.mem_out\[0\]
*225 cbx_1__2_\.mem_top_ipin_2\.mem_out\[1\]
*226 cbx_1__2_\.mem_top_ipin_2\.mem_out\[2\]
*227 cbx_1__2_\.mem_top_ipin_3\.ccff_tail
*228 cbx_1__2_\.mem_top_ipin_3\.mem_out\[0\]
*229 cbx_1__2_\.mem_top_ipin_3\.mem_out\[1\]
*230 cbx_1__2_\.mem_top_ipin_3\.mem_out\[2\]
*231 cbx_1__2_\.mem_top_ipin_4\.ccff_tail
*232 cbx_1__2_\.mem_top_ipin_4\.mem_out\[0\]
*233 cbx_1__2_\.mem_top_ipin_4\.mem_out\[1\]
*234 cbx_1__2_\.mem_top_ipin_4\.mem_out\[2\]
*235 cbx_1__2_\.mem_top_ipin_5\.ccff_tail
*236 cbx_1__2_\.mem_top_ipin_5\.mem_out\[0\]
*237 cbx_1__2_\.mem_top_ipin_5\.mem_out\[1\]
*238 cbx_1__2_\.mem_top_ipin_5\.mem_out\[2\]
*239 cbx_1__2_\.mem_top_ipin_6\.ccff_tail
*240 cbx_1__2_\.mem_top_ipin_6\.mem_out\[0\]
*241 cbx_1__2_\.mem_top_ipin_6\.mem_out\[1\]
*242 cbx_1__2_\.mem_top_ipin_6\.mem_out\[2\]
*243 cbx_1__2_\.mem_top_ipin_7\.ccff_tail
*244 cbx_1__2_\.mem_top_ipin_7\.mem_out\[0\]
*245 cbx_1__2_\.mem_top_ipin_7\.mem_out\[1\]
*246 cbx_1__2_\.mem_top_ipin_7\.mem_out\[2\]
*247 cbx_1__2_\.mem_top_ipin_8\.ccff_tail
*248 cbx_1__2_\.mem_top_ipin_8\.mem_out\[0\]
*249 cbx_1__2_\.mem_top_ipin_8\.mem_out\[1\]
*250 cbx_1__2_\.mem_top_ipin_8\.mem_out\[2\]
*251 cbx_1__2_\.mem_top_ipin_9\.mem_out\[0\]
*252 cbx_1__2_\.mem_top_ipin_9\.mem_out\[1\]
*253 cbx_1__2_\.mem_top_ipin_9\.mem_out\[2\]
*254 cbx_1__2__1_ccff_tail
*255 cbx_2__0_\.ccff_head
*256 cbx_2__0_\.mem_top_ipin_0\.ccff_tail
*257 cbx_2__0_\.mem_top_ipin_0\.mem_out\[0\]
*258 cbx_2__0_\.mem_top_ipin_0\.mem_out\[1\]
*259 cbx_2__0_\.mem_top_ipin_0\.mem_out\[2\]
*260 cbx_2__0_\.mem_top_ipin_1\.ccff_tail
*261 cbx_2__0_\.mem_top_ipin_1\.mem_out\[0\]
*262 cbx_2__0_\.mem_top_ipin_1\.mem_out\[1\]
*263 cbx_2__0_\.mem_top_ipin_1\.mem_out\[2\]
*264 cbx_2__0_\.mem_top_ipin_2\.ccff_tail
*265 cbx_2__0_\.mem_top_ipin_2\.mem_out\[0\]
*266 cbx_2__0_\.mem_top_ipin_2\.mem_out\[1\]
*267 cbx_2__0_\.mem_top_ipin_2\.mem_out\[2\]
*268 cbx_2__0_\.mem_top_ipin_3\.ccff_tail
*269 cbx_2__0_\.mem_top_ipin_3\.mem_out\[0\]
*270 cbx_2__0_\.mem_top_ipin_3\.mem_out\[1\]
*271 cbx_2__0_\.mem_top_ipin_3\.mem_out\[2\]
*272 cbx_2__0_\.mem_top_ipin_4\.ccff_tail
*273 cbx_2__0_\.mem_top_ipin_4\.mem_out\[0\]
*274 cbx_2__0_\.mem_top_ipin_4\.mem_out\[1\]
*275 cbx_2__0_\.mem_top_ipin_4\.mem_out\[2\]
*276 cbx_2__0_\.mem_top_ipin_5\.ccff_tail
*277 cbx_2__0_\.mem_top_ipin_5\.mem_out\[0\]
*278 cbx_2__0_\.mem_top_ipin_5\.mem_out\[1\]
*279 cbx_2__0_\.mem_top_ipin_5\.mem_out\[2\]
*280 cbx_2__0_\.mem_top_ipin_6\.ccff_tail
*281 cbx_2__0_\.mem_top_ipin_6\.mem_out\[0\]
*282 cbx_2__0_\.mem_top_ipin_6\.mem_out\[1\]
*283 cbx_2__0_\.mem_top_ipin_6\.mem_out\[2\]
*284 cbx_2__0_\.mem_top_ipin_7\.ccff_tail
*285 cbx_2__0_\.mem_top_ipin_7\.mem_out\[0\]
*286 cbx_2__0_\.mem_top_ipin_7\.mem_out\[1\]
*287 cbx_2__0_\.mem_top_ipin_7\.mem_out\[2\]
*288 cbx_2__0_\.mem_top_ipin_8\.mem_out\[0\]
*289 cbx_2__0_\.mem_top_ipin_8\.mem_out\[1\]
*290 cbx_2__0_\.mem_top_ipin_8\.mem_out\[2\]
*291 cbx_2__1_\.ccff_head
*292 cbx_2__1_\.mem_top_ipin_0\.ccff_tail
*293 cbx_2__1_\.mem_top_ipin_0\.mem_out\[0\]
*294 cbx_2__1_\.mem_top_ipin_0\.mem_out\[1\]
*295 cbx_2__1_\.mem_top_ipin_0\.mem_out\[2\]
*296 cbx_2__1_\.mem_top_ipin_1\.ccff_tail
*297 cbx_2__1_\.mem_top_ipin_1\.mem_out\[0\]
*298 cbx_2__1_\.mem_top_ipin_1\.mem_out\[1\]
*299 cbx_2__1_\.mem_top_ipin_1\.mem_out\[2\]
*300 cbx_2__1_\.mem_top_ipin_10\.ccff_head
*301 cbx_2__1_\.mem_top_ipin_10\.ccff_tail
*302 cbx_2__1_\.mem_top_ipin_10\.mem_out\[0\]
*303 cbx_2__1_\.mem_top_ipin_10\.mem_out\[1\]
*304 cbx_2__1_\.mem_top_ipin_10\.mem_out\[2\]
*305 cbx_2__1_\.mem_top_ipin_11\.ccff_tail
*306 cbx_2__1_\.mem_top_ipin_11\.mem_out\[0\]
*307 cbx_2__1_\.mem_top_ipin_11\.mem_out\[1\]
*308 cbx_2__1_\.mem_top_ipin_11\.mem_out\[2\]
*309 cbx_2__1_\.mem_top_ipin_12\.ccff_tail
*310 cbx_2__1_\.mem_top_ipin_12\.mem_out\[0\]
*311 cbx_2__1_\.mem_top_ipin_12\.mem_out\[1\]
*312 cbx_2__1_\.mem_top_ipin_12\.mem_out\[2\]
*313 cbx_2__1_\.mem_top_ipin_13\.ccff_tail
*314 cbx_2__1_\.mem_top_ipin_13\.mem_out\[0\]
*315 cbx_2__1_\.mem_top_ipin_13\.mem_out\[1\]
*316 cbx_2__1_\.mem_top_ipin_13\.mem_out\[2\]
*317 cbx_2__1_\.mem_top_ipin_14\.ccff_tail
*318 cbx_2__1_\.mem_top_ipin_14\.mem_out\[0\]
*319 cbx_2__1_\.mem_top_ipin_14\.mem_out\[1\]
*320 cbx_2__1_\.mem_top_ipin_14\.mem_out\[2\]
*321 cbx_2__1_\.mem_top_ipin_15\.mem_out\[0\]
*322 cbx_2__1_\.mem_top_ipin_15\.mem_out\[1\]
*323 cbx_2__1_\.mem_top_ipin_15\.mem_out\[2\]
*324 cbx_2__1_\.mem_top_ipin_2\.ccff_tail
*325 cbx_2__1_\.mem_top_ipin_2\.mem_out\[0\]
*326 cbx_2__1_\.mem_top_ipin_2\.mem_out\[1\]
*327 cbx_2__1_\.mem_top_ipin_2\.mem_out\[2\]
*328 cbx_2__1_\.mem_top_ipin_3\.ccff_tail
*329 cbx_2__1_\.mem_top_ipin_3\.mem_out\[0\]
*330 cbx_2__1_\.mem_top_ipin_3\.mem_out\[1\]
*331 cbx_2__1_\.mem_top_ipin_3\.mem_out\[2\]
*332 cbx_2__1_\.mem_top_ipin_4\.ccff_tail
*333 cbx_2__1_\.mem_top_ipin_4\.mem_out\[0\]
*334 cbx_2__1_\.mem_top_ipin_4\.mem_out\[1\]
*335 cbx_2__1_\.mem_top_ipin_4\.mem_out\[2\]
*336 cbx_2__1_\.mem_top_ipin_5\.ccff_tail
*337 cbx_2__1_\.mem_top_ipin_5\.mem_out\[0\]
*338 cbx_2__1_\.mem_top_ipin_5\.mem_out\[1\]
*339 cbx_2__1_\.mem_top_ipin_5\.mem_out\[2\]
*340 cbx_2__1_\.mem_top_ipin_6\.ccff_tail
*341 cbx_2__1_\.mem_top_ipin_6\.mem_out\[0\]
*342 cbx_2__1_\.mem_top_ipin_6\.mem_out\[1\]
*343 cbx_2__1_\.mem_top_ipin_6\.mem_out\[2\]
*344 cbx_2__1_\.mem_top_ipin_7\.ccff_tail
*345 cbx_2__1_\.mem_top_ipin_7\.mem_out\[0\]
*346 cbx_2__1_\.mem_top_ipin_7\.mem_out\[1\]
*347 cbx_2__1_\.mem_top_ipin_7\.mem_out\[2\]
*348 cbx_2__1_\.mem_top_ipin_8\.ccff_tail
*349 cbx_2__1_\.mem_top_ipin_8\.mem_out\[0\]
*350 cbx_2__1_\.mem_top_ipin_8\.mem_out\[1\]
*351 cbx_2__1_\.mem_top_ipin_8\.mem_out\[2\]
*352 cbx_2__1_\.mem_top_ipin_9\.mem_out\[0\]
*353 cbx_2__1_\.mem_top_ipin_9\.mem_out\[1\]
*354 cbx_2__1_\.mem_top_ipin_9\.mem_out\[2\]
*355 cbx_2__2_\.ccff_head
*356 cbx_2__2_\.mem_bottom_ipin_0\.ccff_tail
*357 cbx_2__2_\.mem_bottom_ipin_0\.mem_out\[0\]
*358 cbx_2__2_\.mem_bottom_ipin_0\.mem_out\[1\]
*359 cbx_2__2_\.mem_bottom_ipin_0\.mem_out\[2\]
*360 cbx_2__2_\.mem_top_ipin_0\.ccff_tail
*361 cbx_2__2_\.mem_top_ipin_0\.mem_out\[0\]
*362 cbx_2__2_\.mem_top_ipin_0\.mem_out\[1\]
*363 cbx_2__2_\.mem_top_ipin_0\.mem_out\[2\]
*364 cbx_2__2_\.mem_top_ipin_1\.ccff_tail
*365 cbx_2__2_\.mem_top_ipin_1\.mem_out\[0\]
*366 cbx_2__2_\.mem_top_ipin_1\.mem_out\[1\]
*367 cbx_2__2_\.mem_top_ipin_1\.mem_out\[2\]
*368 cbx_2__2_\.mem_top_ipin_10\.ccff_head
*369 cbx_2__2_\.mem_top_ipin_10\.ccff_tail
*370 cbx_2__2_\.mem_top_ipin_10\.mem_out\[0\]
*371 cbx_2__2_\.mem_top_ipin_10\.mem_out\[1\]
*372 cbx_2__2_\.mem_top_ipin_10\.mem_out\[2\]
*373 cbx_2__2_\.mem_top_ipin_11\.ccff_tail
*374 cbx_2__2_\.mem_top_ipin_11\.mem_out\[0\]
*375 cbx_2__2_\.mem_top_ipin_11\.mem_out\[1\]
*376 cbx_2__2_\.mem_top_ipin_11\.mem_out\[2\]
*377 cbx_2__2_\.mem_top_ipin_12\.ccff_tail
*378 cbx_2__2_\.mem_top_ipin_12\.mem_out\[0\]
*379 cbx_2__2_\.mem_top_ipin_12\.mem_out\[1\]
*380 cbx_2__2_\.mem_top_ipin_12\.mem_out\[2\]
*381 cbx_2__2_\.mem_top_ipin_13\.ccff_tail
*382 cbx_2__2_\.mem_top_ipin_13\.mem_out\[0\]
*383 cbx_2__2_\.mem_top_ipin_13\.mem_out\[1\]
*384 cbx_2__2_\.mem_top_ipin_13\.mem_out\[2\]
*385 cbx_2__2_\.mem_top_ipin_14\.ccff_tail
*386 cbx_2__2_\.mem_top_ipin_14\.mem_out\[0\]
*387 cbx_2__2_\.mem_top_ipin_14\.mem_out\[1\]
*388 cbx_2__2_\.mem_top_ipin_14\.mem_out\[2\]
*389 cbx_2__2_\.mem_top_ipin_15\.mem_out\[0\]
*390 cbx_2__2_\.mem_top_ipin_15\.mem_out\[1\]
*391 cbx_2__2_\.mem_top_ipin_15\.mem_out\[2\]
*392 cbx_2__2_\.mem_top_ipin_2\.ccff_tail
*393 cbx_2__2_\.mem_top_ipin_2\.mem_out\[0\]
*394 cbx_2__2_\.mem_top_ipin_2\.mem_out\[1\]
*395 cbx_2__2_\.mem_top_ipin_2\.mem_out\[2\]
*396 cbx_2__2_\.mem_top_ipin_3\.ccff_tail
*397 cbx_2__2_\.mem_top_ipin_3\.mem_out\[0\]
*398 cbx_2__2_\.mem_top_ipin_3\.mem_out\[1\]
*399 cbx_2__2_\.mem_top_ipin_3\.mem_out\[2\]
*400 cbx_2__2_\.mem_top_ipin_4\.ccff_tail
*401 cbx_2__2_\.mem_top_ipin_4\.mem_out\[0\]
*402 cbx_2__2_\.mem_top_ipin_4\.mem_out\[1\]
*403 cbx_2__2_\.mem_top_ipin_4\.mem_out\[2\]
*404 cbx_2__2_\.mem_top_ipin_5\.ccff_tail
*405 cbx_2__2_\.mem_top_ipin_5\.mem_out\[0\]
*406 cbx_2__2_\.mem_top_ipin_5\.mem_out\[1\]
*407 cbx_2__2_\.mem_top_ipin_5\.mem_out\[2\]
*408 cbx_2__2_\.mem_top_ipin_6\.ccff_tail
*409 cbx_2__2_\.mem_top_ipin_6\.mem_out\[0\]
*410 cbx_2__2_\.mem_top_ipin_6\.mem_out\[1\]
*411 cbx_2__2_\.mem_top_ipin_6\.mem_out\[2\]
*412 cbx_2__2_\.mem_top_ipin_7\.ccff_tail
*413 cbx_2__2_\.mem_top_ipin_7\.mem_out\[0\]
*414 cbx_2__2_\.mem_top_ipin_7\.mem_out\[1\]
*415 cbx_2__2_\.mem_top_ipin_7\.mem_out\[2\]
*416 cbx_2__2_\.mem_top_ipin_8\.ccff_tail
*417 cbx_2__2_\.mem_top_ipin_8\.mem_out\[0\]
*418 cbx_2__2_\.mem_top_ipin_8\.mem_out\[1\]
*419 cbx_2__2_\.mem_top_ipin_8\.mem_out\[2\]
*420 cbx_2__2_\.mem_top_ipin_9\.mem_out\[0\]
*421 cbx_2__2_\.mem_top_ipin_9\.mem_out\[1\]
*422 cbx_2__2_\.mem_top_ipin_9\.mem_out\[2\]
*423 cby_0__1_\.ccff_head
*424 cby_0__1_\.ccff_tail
*425 cby_0__1_\.mem_right_ipin_0\.mem_out\[0\]
*426 cby_0__1_\.mem_right_ipin_0\.mem_out\[1\]
*427 cby_0__1_\.mem_right_ipin_0\.mem_out\[2\]
*428 cby_0__1__1_ccff_tail
*429 cby_0__2_\.ccff_head
*430 cby_0__2_\.mem_right_ipin_0\.mem_out\[0\]
*431 cby_0__2_\.mem_right_ipin_0\.mem_out\[1\]
*432 cby_0__2_\.mem_right_ipin_0\.mem_out\[2\]
*433 cby_1__1_\.ccff_tail
*434 cby_1__1_\.mem_right_ipin_0\.ccff_tail
*435 cby_1__1_\.mem_right_ipin_0\.mem_out\[0\]
*436 cby_1__1_\.mem_right_ipin_0\.mem_out\[1\]
*437 cby_1__1_\.mem_right_ipin_0\.mem_out\[2\]
*438 cby_1__1_\.mem_right_ipin_1\.ccff_tail
*439 cby_1__1_\.mem_right_ipin_1\.mem_out\[0\]
*440 cby_1__1_\.mem_right_ipin_1\.mem_out\[1\]
*441 cby_1__1_\.mem_right_ipin_1\.mem_out\[2\]
*442 cby_1__1_\.mem_right_ipin_10\.ccff_head
*443 cby_1__1_\.mem_right_ipin_10\.ccff_tail
*444 cby_1__1_\.mem_right_ipin_10\.mem_out\[0\]
*445 cby_1__1_\.mem_right_ipin_10\.mem_out\[1\]
*446 cby_1__1_\.mem_right_ipin_10\.mem_out\[2\]
*447 cby_1__1_\.mem_right_ipin_11\.ccff_tail
*448 cby_1__1_\.mem_right_ipin_11\.mem_out\[0\]
*449 cby_1__1_\.mem_right_ipin_11\.mem_out\[1\]
*450 cby_1__1_\.mem_right_ipin_11\.mem_out\[2\]
*451 cby_1__1_\.mem_right_ipin_12\.ccff_tail
*452 cby_1__1_\.mem_right_ipin_12\.mem_out\[0\]
*453 cby_1__1_\.mem_right_ipin_12\.mem_out\[1\]
*454 cby_1__1_\.mem_right_ipin_12\.mem_out\[2\]
*455 cby_1__1_\.mem_right_ipin_13\.ccff_tail
*456 cby_1__1_\.mem_right_ipin_13\.mem_out\[0\]
*457 cby_1__1_\.mem_right_ipin_13\.mem_out\[1\]
*458 cby_1__1_\.mem_right_ipin_13\.mem_out\[2\]
*459 cby_1__1_\.mem_right_ipin_14\.ccff_tail
*460 cby_1__1_\.mem_right_ipin_14\.mem_out\[0\]
*461 cby_1__1_\.mem_right_ipin_14\.mem_out\[1\]
*462 cby_1__1_\.mem_right_ipin_14\.mem_out\[2\]
*463 cby_1__1_\.mem_right_ipin_15\.mem_out\[0\]
*464 cby_1__1_\.mem_right_ipin_15\.mem_out\[1\]
*465 cby_1__1_\.mem_right_ipin_15\.mem_out\[2\]
*466 cby_1__1_\.mem_right_ipin_2\.ccff_tail
*467 cby_1__1_\.mem_right_ipin_2\.mem_out\[0\]
*468 cby_1__1_\.mem_right_ipin_2\.mem_out\[1\]
*469 cby_1__1_\.mem_right_ipin_2\.mem_out\[2\]
*470 cby_1__1_\.mem_right_ipin_3\.ccff_tail
*471 cby_1__1_\.mem_right_ipin_3\.mem_out\[0\]
*472 cby_1__1_\.mem_right_ipin_3\.mem_out\[1\]
*473 cby_1__1_\.mem_right_ipin_3\.mem_out\[2\]
*474 cby_1__1_\.mem_right_ipin_4\.ccff_tail
*475 cby_1__1_\.mem_right_ipin_4\.mem_out\[0\]
*476 cby_1__1_\.mem_right_ipin_4\.mem_out\[1\]
*477 cby_1__1_\.mem_right_ipin_4\.mem_out\[2\]
*478 cby_1__1_\.mem_right_ipin_5\.ccff_tail
*479 cby_1__1_\.mem_right_ipin_5\.mem_out\[0\]
*480 cby_1__1_\.mem_right_ipin_5\.mem_out\[1\]
*481 cby_1__1_\.mem_right_ipin_5\.mem_out\[2\]
*482 cby_1__1_\.mem_right_ipin_6\.ccff_tail
*483 cby_1__1_\.mem_right_ipin_6\.mem_out\[0\]
*484 cby_1__1_\.mem_right_ipin_6\.mem_out\[1\]
*485 cby_1__1_\.mem_right_ipin_6\.mem_out\[2\]
*486 cby_1__1_\.mem_right_ipin_7\.ccff_tail
*487 cby_1__1_\.mem_right_ipin_7\.mem_out\[0\]
*488 cby_1__1_\.mem_right_ipin_7\.mem_out\[1\]
*489 cby_1__1_\.mem_right_ipin_7\.mem_out\[2\]
*490 cby_1__1_\.mem_right_ipin_8\.ccff_tail
*491 cby_1__1_\.mem_right_ipin_8\.mem_out\[0\]
*492 cby_1__1_\.mem_right_ipin_8\.mem_out\[1\]
*493 cby_1__1_\.mem_right_ipin_8\.mem_out\[2\]
*494 cby_1__1_\.mem_right_ipin_9\.mem_out\[0\]
*495 cby_1__1_\.mem_right_ipin_9\.mem_out\[1\]
*496 cby_1__1_\.mem_right_ipin_9\.mem_out\[2\]
*497 cby_1__1__1_ccff_tail
*498 cby_1__2_\.mem_right_ipin_0\.ccff_tail
*499 cby_1__2_\.mem_right_ipin_0\.mem_out\[0\]
*500 cby_1__2_\.mem_right_ipin_0\.mem_out\[1\]
*501 cby_1__2_\.mem_right_ipin_0\.mem_out\[2\]
*502 cby_1__2_\.mem_right_ipin_1\.ccff_tail
*503 cby_1__2_\.mem_right_ipin_1\.mem_out\[0\]
*504 cby_1__2_\.mem_right_ipin_1\.mem_out\[1\]
*505 cby_1__2_\.mem_right_ipin_1\.mem_out\[2\]
*506 cby_1__2_\.mem_right_ipin_10\.ccff_head
*507 cby_1__2_\.mem_right_ipin_10\.ccff_tail
*508 cby_1__2_\.mem_right_ipin_10\.mem_out\[0\]
*509 cby_1__2_\.mem_right_ipin_10\.mem_out\[1\]
*510 cby_1__2_\.mem_right_ipin_10\.mem_out\[2\]
*511 cby_1__2_\.mem_right_ipin_11\.ccff_tail
*512 cby_1__2_\.mem_right_ipin_11\.mem_out\[0\]
*513 cby_1__2_\.mem_right_ipin_11\.mem_out\[1\]
*514 cby_1__2_\.mem_right_ipin_11\.mem_out\[2\]
*515 cby_1__2_\.mem_right_ipin_12\.ccff_tail
*516 cby_1__2_\.mem_right_ipin_12\.mem_out\[0\]
*517 cby_1__2_\.mem_right_ipin_12\.mem_out\[1\]
*518 cby_1__2_\.mem_right_ipin_12\.mem_out\[2\]
*519 cby_1__2_\.mem_right_ipin_13\.ccff_tail
*520 cby_1__2_\.mem_right_ipin_13\.mem_out\[0\]
*521 cby_1__2_\.mem_right_ipin_13\.mem_out\[1\]
*522 cby_1__2_\.mem_right_ipin_13\.mem_out\[2\]
*523 cby_1__2_\.mem_right_ipin_14\.ccff_tail
*524 cby_1__2_\.mem_right_ipin_14\.mem_out\[0\]
*525 cby_1__2_\.mem_right_ipin_14\.mem_out\[1\]
*526 cby_1__2_\.mem_right_ipin_14\.mem_out\[2\]
*527 cby_1__2_\.mem_right_ipin_15\.mem_out\[0\]
*528 cby_1__2_\.mem_right_ipin_15\.mem_out\[1\]
*529 cby_1__2_\.mem_right_ipin_15\.mem_out\[2\]
*530 cby_1__2_\.mem_right_ipin_2\.ccff_tail
*531 cby_1__2_\.mem_right_ipin_2\.mem_out\[0\]
*532 cby_1__2_\.mem_right_ipin_2\.mem_out\[1\]
*533 cby_1__2_\.mem_right_ipin_2\.mem_out\[2\]
*534 cby_1__2_\.mem_right_ipin_3\.ccff_tail
*535 cby_1__2_\.mem_right_ipin_3\.mem_out\[0\]
*536 cby_1__2_\.mem_right_ipin_3\.mem_out\[1\]
*537 cby_1__2_\.mem_right_ipin_3\.mem_out\[2\]
*538 cby_1__2_\.mem_right_ipin_4\.ccff_tail
*539 cby_1__2_\.mem_right_ipin_4\.mem_out\[0\]
*540 cby_1__2_\.mem_right_ipin_4\.mem_out\[1\]
*541 cby_1__2_\.mem_right_ipin_4\.mem_out\[2\]
*542 cby_1__2_\.mem_right_ipin_5\.ccff_tail
*543 cby_1__2_\.mem_right_ipin_5\.mem_out\[0\]
*544 cby_1__2_\.mem_right_ipin_5\.mem_out\[1\]
*545 cby_1__2_\.mem_right_ipin_5\.mem_out\[2\]
*546 cby_1__2_\.mem_right_ipin_6\.ccff_tail
*547 cby_1__2_\.mem_right_ipin_6\.mem_out\[0\]
*548 cby_1__2_\.mem_right_ipin_6\.mem_out\[1\]
*549 cby_1__2_\.mem_right_ipin_6\.mem_out\[2\]
*550 cby_1__2_\.mem_right_ipin_7\.ccff_tail
*551 cby_1__2_\.mem_right_ipin_7\.mem_out\[0\]
*552 cby_1__2_\.mem_right_ipin_7\.mem_out\[1\]
*553 cby_1__2_\.mem_right_ipin_7\.mem_out\[2\]
*554 cby_1__2_\.mem_right_ipin_8\.ccff_tail
*555 cby_1__2_\.mem_right_ipin_8\.mem_out\[0\]
*556 cby_1__2_\.mem_right_ipin_8\.mem_out\[1\]
*557 cby_1__2_\.mem_right_ipin_8\.mem_out\[2\]
*558 cby_1__2_\.mem_right_ipin_9\.mem_out\[0\]
*559 cby_1__2_\.mem_right_ipin_9\.mem_out\[1\]
*560 cby_1__2_\.mem_right_ipin_9\.mem_out\[2\]
*561 cby_2__1_\.ccff_tail
*562 cby_2__1_\.mem_left_ipin_0\.ccff_tail
*563 cby_2__1_\.mem_left_ipin_0\.mem_out\[0\]
*564 cby_2__1_\.mem_left_ipin_0\.mem_out\[1\]
*565 cby_2__1_\.mem_left_ipin_0\.mem_out\[2\]
*566 cby_2__1_\.mem_right_ipin_0\.ccff_tail
*567 cby_2__1_\.mem_right_ipin_0\.mem_out\[0\]
*568 cby_2__1_\.mem_right_ipin_0\.mem_out\[1\]
*569 cby_2__1_\.mem_right_ipin_0\.mem_out\[2\]
*570 cby_2__1_\.mem_right_ipin_1\.ccff_tail
*571 cby_2__1_\.mem_right_ipin_1\.mem_out\[0\]
*572 cby_2__1_\.mem_right_ipin_1\.mem_out\[1\]
*573 cby_2__1_\.mem_right_ipin_1\.mem_out\[2\]
*574 cby_2__1_\.mem_right_ipin_10\.ccff_head
*575 cby_2__1_\.mem_right_ipin_10\.ccff_tail
*576 cby_2__1_\.mem_right_ipin_10\.mem_out\[0\]
*577 cby_2__1_\.mem_right_ipin_10\.mem_out\[1\]
*578 cby_2__1_\.mem_right_ipin_10\.mem_out\[2\]
*579 cby_2__1_\.mem_right_ipin_11\.ccff_tail
*580 cby_2__1_\.mem_right_ipin_11\.mem_out\[0\]
*581 cby_2__1_\.mem_right_ipin_11\.mem_out\[1\]
*582 cby_2__1_\.mem_right_ipin_11\.mem_out\[2\]
*583 cby_2__1_\.mem_right_ipin_12\.ccff_tail
*584 cby_2__1_\.mem_right_ipin_12\.mem_out\[0\]
*585 cby_2__1_\.mem_right_ipin_12\.mem_out\[1\]
*586 cby_2__1_\.mem_right_ipin_12\.mem_out\[2\]
*587 cby_2__1_\.mem_right_ipin_13\.ccff_tail
*588 cby_2__1_\.mem_right_ipin_13\.mem_out\[0\]
*589 cby_2__1_\.mem_right_ipin_13\.mem_out\[1\]
*590 cby_2__1_\.mem_right_ipin_13\.mem_out\[2\]
*591 cby_2__1_\.mem_right_ipin_14\.ccff_tail
*592 cby_2__1_\.mem_right_ipin_14\.mem_out\[0\]
*593 cby_2__1_\.mem_right_ipin_14\.mem_out\[1\]
*594 cby_2__1_\.mem_right_ipin_14\.mem_out\[2\]
*595 cby_2__1_\.mem_right_ipin_15\.mem_out\[0\]
*596 cby_2__1_\.mem_right_ipin_15\.mem_out\[1\]
*597 cby_2__1_\.mem_right_ipin_15\.mem_out\[2\]
*598 cby_2__1_\.mem_right_ipin_2\.ccff_tail
*599 cby_2__1_\.mem_right_ipin_2\.mem_out\[0\]
*600 cby_2__1_\.mem_right_ipin_2\.mem_out\[1\]
*601 cby_2__1_\.mem_right_ipin_2\.mem_out\[2\]
*602 cby_2__1_\.mem_right_ipin_3\.ccff_tail
*603 cby_2__1_\.mem_right_ipin_3\.mem_out\[0\]
*604 cby_2__1_\.mem_right_ipin_3\.mem_out\[1\]
*605 cby_2__1_\.mem_right_ipin_3\.mem_out\[2\]
*606 cby_2__1_\.mem_right_ipin_4\.ccff_tail
*607 cby_2__1_\.mem_right_ipin_4\.mem_out\[0\]
*608 cby_2__1_\.mem_right_ipin_4\.mem_out\[1\]
*609 cby_2__1_\.mem_right_ipin_4\.mem_out\[2\]
*610 cby_2__1_\.mem_right_ipin_5\.ccff_tail
*611 cby_2__1_\.mem_right_ipin_5\.mem_out\[0\]
*612 cby_2__1_\.mem_right_ipin_5\.mem_out\[1\]
*613 cby_2__1_\.mem_right_ipin_5\.mem_out\[2\]
*614 cby_2__1_\.mem_right_ipin_6\.ccff_tail
*615 cby_2__1_\.mem_right_ipin_6\.mem_out\[0\]
*616 cby_2__1_\.mem_right_ipin_6\.mem_out\[1\]
*617 cby_2__1_\.mem_right_ipin_6\.mem_out\[2\]
*618 cby_2__1_\.mem_right_ipin_7\.ccff_tail
*619 cby_2__1_\.mem_right_ipin_7\.mem_out\[0\]
*620 cby_2__1_\.mem_right_ipin_7\.mem_out\[1\]
*621 cby_2__1_\.mem_right_ipin_7\.mem_out\[2\]
*622 cby_2__1_\.mem_right_ipin_8\.ccff_tail
*623 cby_2__1_\.mem_right_ipin_8\.mem_out\[0\]
*624 cby_2__1_\.mem_right_ipin_8\.mem_out\[1\]
*625 cby_2__1_\.mem_right_ipin_8\.mem_out\[2\]
*626 cby_2__1_\.mem_right_ipin_9\.mem_out\[0\]
*627 cby_2__1_\.mem_right_ipin_9\.mem_out\[1\]
*628 cby_2__1_\.mem_right_ipin_9\.mem_out\[2\]
*629 cby_2__1__1_ccff_tail
*630 cby_2__2_\.mem_left_ipin_0\.ccff_tail
*631 cby_2__2_\.mem_left_ipin_0\.mem_out\[0\]
*632 cby_2__2_\.mem_left_ipin_0\.mem_out\[1\]
*633 cby_2__2_\.mem_left_ipin_0\.mem_out\[2\]
*634 cby_2__2_\.mem_right_ipin_0\.ccff_tail
*635 cby_2__2_\.mem_right_ipin_0\.mem_out\[0\]
*636 cby_2__2_\.mem_right_ipin_0\.mem_out\[1\]
*637 cby_2__2_\.mem_right_ipin_0\.mem_out\[2\]
*638 cby_2__2_\.mem_right_ipin_1\.ccff_tail
*639 cby_2__2_\.mem_right_ipin_1\.mem_out\[0\]
*640 cby_2__2_\.mem_right_ipin_1\.mem_out\[1\]
*641 cby_2__2_\.mem_right_ipin_1\.mem_out\[2\]
*642 cby_2__2_\.mem_right_ipin_10\.ccff_head
*643 cby_2__2_\.mem_right_ipin_10\.ccff_tail
*644 cby_2__2_\.mem_right_ipin_10\.mem_out\[0\]
*645 cby_2__2_\.mem_right_ipin_10\.mem_out\[1\]
*646 cby_2__2_\.mem_right_ipin_10\.mem_out\[2\]
*647 cby_2__2_\.mem_right_ipin_11\.ccff_tail
*648 cby_2__2_\.mem_right_ipin_11\.mem_out\[0\]
*649 cby_2__2_\.mem_right_ipin_11\.mem_out\[1\]
*650 cby_2__2_\.mem_right_ipin_11\.mem_out\[2\]
*651 cby_2__2_\.mem_right_ipin_12\.ccff_tail
*652 cby_2__2_\.mem_right_ipin_12\.mem_out\[0\]
*653 cby_2__2_\.mem_right_ipin_12\.mem_out\[1\]
*654 cby_2__2_\.mem_right_ipin_12\.mem_out\[2\]
*655 cby_2__2_\.mem_right_ipin_13\.ccff_tail
*656 cby_2__2_\.mem_right_ipin_13\.mem_out\[0\]
*657 cby_2__2_\.mem_right_ipin_13\.mem_out\[1\]
*658 cby_2__2_\.mem_right_ipin_13\.mem_out\[2\]
*659 cby_2__2_\.mem_right_ipin_14\.ccff_tail
*660 cby_2__2_\.mem_right_ipin_14\.mem_out\[0\]
*661 cby_2__2_\.mem_right_ipin_14\.mem_out\[1\]
*662 cby_2__2_\.mem_right_ipin_14\.mem_out\[2\]
*663 cby_2__2_\.mem_right_ipin_15\.mem_out\[0\]
*664 cby_2__2_\.mem_right_ipin_15\.mem_out\[1\]
*665 cby_2__2_\.mem_right_ipin_15\.mem_out\[2\]
*666 cby_2__2_\.mem_right_ipin_2\.ccff_tail
*667 cby_2__2_\.mem_right_ipin_2\.mem_out\[0\]
*668 cby_2__2_\.mem_right_ipin_2\.mem_out\[1\]
*669 cby_2__2_\.mem_right_ipin_2\.mem_out\[2\]
*670 cby_2__2_\.mem_right_ipin_3\.ccff_tail
*671 cby_2__2_\.mem_right_ipin_3\.mem_out\[0\]
*672 cby_2__2_\.mem_right_ipin_3\.mem_out\[1\]
*673 cby_2__2_\.mem_right_ipin_3\.mem_out\[2\]
*674 cby_2__2_\.mem_right_ipin_4\.ccff_tail
*675 cby_2__2_\.mem_right_ipin_4\.mem_out\[0\]
*676 cby_2__2_\.mem_right_ipin_4\.mem_out\[1\]
*677 cby_2__2_\.mem_right_ipin_4\.mem_out\[2\]
*678 cby_2__2_\.mem_right_ipin_5\.ccff_tail
*679 cby_2__2_\.mem_right_ipin_5\.mem_out\[0\]
*680 cby_2__2_\.mem_right_ipin_5\.mem_out\[1\]
*681 cby_2__2_\.mem_right_ipin_5\.mem_out\[2\]
*682 cby_2__2_\.mem_right_ipin_6\.ccff_tail
*683 cby_2__2_\.mem_right_ipin_6\.mem_out\[0\]
*684 cby_2__2_\.mem_right_ipin_6\.mem_out\[1\]
*685 cby_2__2_\.mem_right_ipin_6\.mem_out\[2\]
*686 cby_2__2_\.mem_right_ipin_7\.ccff_tail
*687 cby_2__2_\.mem_right_ipin_7\.mem_out\[0\]
*688 cby_2__2_\.mem_right_ipin_7\.mem_out\[1\]
*689 cby_2__2_\.mem_right_ipin_7\.mem_out\[2\]
*690 cby_2__2_\.mem_right_ipin_8\.ccff_tail
*691 cby_2__2_\.mem_right_ipin_8\.mem_out\[0\]
*692 cby_2__2_\.mem_right_ipin_8\.mem_out\[1\]
*693 cby_2__2_\.mem_right_ipin_8\.mem_out\[2\]
*694 cby_2__2_\.mem_right_ipin_9\.mem_out\[0\]
*695 cby_2__2_\.mem_right_ipin_9\.mem_out\[1\]
*696 cby_2__2_\.mem_right_ipin_9\.mem_out\[2\]
*697 clknet_0_prog_clk
*698 clknet_3_0__leaf_prog_clk
*699 clknet_3_1__leaf_prog_clk
*700 clknet_3_2__leaf_prog_clk
*701 clknet_3_3__leaf_prog_clk
*702 clknet_3_4__leaf_prog_clk
*703 clknet_3_5__leaf_prog_clk
*704 clknet_3_6__leaf_prog_clk
*705 clknet_3_7__leaf_prog_clk
*706 clknet_leaf_0_prog_clk
*707 clknet_leaf_100_prog_clk
*708 clknet_leaf_101_prog_clk
*709 clknet_leaf_102_prog_clk
*710 clknet_leaf_103_prog_clk
*711 clknet_leaf_10_prog_clk
*712 clknet_leaf_11_prog_clk
*713 clknet_leaf_12_prog_clk